<?xml version="1.0" encoding="UTF-8"?>

<!-- generated on 2026-01-29T20:11:03.204880+05:30 by Eclipse SUMO netconvert 1.26.0
<netconvertConfiguration xmlns:xsi="http://www.w3.org/2001/XMLSchema-instance" xsi:noNamespaceSchemaLocation="http://sumo.dlr.de/xsd/netconvertConfiguration.xsd">

    <input>
        <node-files value="sumo_network/nodes.nod.xml"/>
        <edge-files value="sumo_network/edges.edg.xml"/>
    </input>

    <output>
        <output-file value="sumo_network/junction.net.xml"/>
    </output>

    <tls_building>
        <tls.guess value="true"/>
    </tls_building>

</netconvertConfiguration>
-->

<net version="1.20" junctionCornerDetail="5" limitTurnSpeed="5.50" xmlns:xsi="http://www.w3.org/2001/XMLSchema-instance" xsi:noNamespaceSchemaLocation="http://sumo.dlr.de/xsd/net_file.xsd">

    <location netOffset="-100.00,-100.00" convBoundary="0.00,0.00,800.00,800.00" origBoundary="100.00,100.00,900.00,900.00" projParameter="!"/>

    <edge id=":center_0" function="internal">
        <lane id=":center_0_0" index="0" speed="6.51" length="9.03" shape="392.00,413.60 391.65,411.15 390.60,409.40 388.85,408.35 386.40,408.00"/>
    </edge>
    <edge id=":center_1" function="internal">
        <lane id=":center_1_0" index="0" speed="13.89" length="27.20" shape="392.00,413.60 392.00,386.40"/>
        <lane id=":center_1_1" index="1" speed="13.89" length="27.20" shape="395.20,413.60 395.20,386.40"/>
        <lane id=":center_1_2" index="2" speed="13.89" length="27.20" shape="398.40,413.60 398.40,386.40"/>
    </edge>
    <edge id=":center_4" function="internal">
        <lane id=":center_4_0" index="0" speed="10.36" length="5.01" shape="398.40,413.60 399.11,408.64"/>
    </edge>
    <edge id=":center_5" function="internal">
        <lane id=":center_5_0" index="0" speed="3.65" length="1.44" shape="398.40,413.60 399.20,412.40"/>
    </edge>
    <edge id=":center_24" function="internal">
        <lane id=":center_24_0" index="0" speed="10.36" length="19.50" shape="399.11,408.64 399.35,406.95 402.20,402.20 406.95,399.35 413.60,398.40"/>
    </edge>
    <edge id=":center_25" function="internal">
        <lane id=":center_25_0" index="0" speed="3.65" length="3.23" shape="399.20,412.40 400.00,412.00 400.80,412.40 401.60,413.60"/>
    </edge>
    <edge id=":center_6" function="internal">
        <lane id=":center_6_0" index="0" speed="6.51" length="9.03" shape="413.60,408.00 411.15,408.35 409.40,409.40 408.35,411.15 408.00,413.60"/>
    </edge>
    <edge id=":center_7" function="internal">
        <lane id=":center_7_0" index="0" speed="13.89" length="27.20" shape="413.60,408.00 386.40,408.00"/>
        <lane id=":center_7_1" index="1" speed="13.89" length="27.20" shape="413.60,404.80 386.40,404.80"/>
        <lane id=":center_7_2" index="2" speed="13.89" length="27.20" shape="413.60,401.60 386.40,401.60"/>
    </edge>
    <edge id=":center_10" function="internal">
        <lane id=":center_10_0" index="0" speed="10.36" length="5.01" shape="413.60,401.60 408.64,400.89"/>
    </edge>
    <edge id=":center_11" function="internal">
        <lane id=":center_11_0" index="0" speed="3.65" length="1.44" shape="413.60,401.60 412.40,400.80"/>
    </edge>
    <edge id=":center_26" function="internal">
        <lane id=":center_26_0" index="0" speed="10.36" length="19.50" shape="408.64,400.89 406.95,400.65 402.20,397.80 399.35,393.05 398.40,386.40"/>
    </edge>
    <edge id=":center_27" function="internal">
        <lane id=":center_27_0" index="0" speed="3.65" length="3.23" shape="412.40,400.80 412.00,400.00 412.40,399.20 413.60,398.40"/>
    </edge>
    <edge id=":center_12" function="internal">
        <lane id=":center_12_0" index="0" speed="6.51" length="9.03" shape="408.00,386.40 408.35,388.85 409.40,390.60 411.15,391.65 413.60,392.00"/>
    </edge>
    <edge id=":center_13" function="internal">
        <lane id=":center_13_0" index="0" speed="13.89" length="27.20" shape="408.00,386.40 408.00,413.60"/>
        <lane id=":center_13_1" index="1" speed="13.89" length="27.20" shape="404.80,386.40 404.80,413.60"/>
        <lane id=":center_13_2" index="2" speed="13.89" length="27.20" shape="401.60,386.40 401.60,413.60"/>
    </edge>
    <edge id=":center_16" function="internal">
        <lane id=":center_16_0" index="0" speed="10.36" length="5.01" shape="401.60,386.40 400.89,391.36"/>
    </edge>
    <edge id=":center_17" function="internal">
        <lane id=":center_17_0" index="0" speed="3.65" length="1.44" shape="401.60,386.40 400.80,387.60"/>
    </edge>
    <edge id=":center_28" function="internal">
        <lane id=":center_28_0" index="0" speed="10.36" length="19.50" shape="400.89,391.36 400.65,393.05 397.80,397.80 393.05,400.65 386.40,401.60"/>
    </edge>
    <edge id=":center_29" function="internal">
        <lane id=":center_29_0" index="0" speed="3.65" length="3.23" shape="400.80,387.60 400.00,388.00 399.20,387.60 398.40,386.40"/>
    </edge>
    <edge id=":center_18" function="internal">
        <lane id=":center_18_0" index="0" speed="6.51" length="9.03" shape="386.40,392.00 388.85,391.65 390.60,390.60 391.65,388.85 392.00,386.40"/>
    </edge>
    <edge id=":center_19" function="internal">
        <lane id=":center_19_0" index="0" speed="13.89" length="27.20" shape="386.40,392.00 413.60,392.00"/>
        <lane id=":center_19_1" index="1" speed="13.89" length="27.20" shape="386.40,395.20 413.60,395.20"/>
        <lane id=":center_19_2" index="2" speed="13.89" length="27.20" shape="386.40,398.40 413.60,398.40"/>
    </edge>
    <edge id=":center_22" function="internal">
        <lane id=":center_22_0" index="0" speed="10.36" length="5.01" shape="386.40,398.40 391.36,399.11"/>
    </edge>
    <edge id=":center_23" function="internal">
        <lane id=":center_23_0" index="0" speed="3.65" length="1.44" shape="386.40,398.40 387.60,399.20"/>
    </edge>
    <edge id=":center_30" function="internal">
        <lane id=":center_30_0" index="0" speed="10.36" length="19.50" shape="391.36,399.11 393.05,399.35 397.80,402.20 400.65,406.95 401.60,413.60"/>
    </edge>
    <edge id=":center_31" function="internal">
        <lane id=":center_31_0" index="0" speed="3.65" length="3.23" shape="387.60,399.20 388.00,400.00 387.60,400.80 386.40,401.60"/>
    </edge>
    <edge id=":east_node_0" function="internal">
        <lane id=":east_node_0_0" index="0" speed="3.65" length="4.67" shape="800.00,398.40 801.20,399.20 801.60,400.00 801.20,400.80 800.00,401.60"/>
    </edge>
    <edge id=":north_node_0" function="internal">
        <lane id=":north_node_0_0" index="0" speed="3.65" length="4.67" shape="401.60,800.00 400.80,801.20 400.00,801.60 399.20,801.20 398.40,800.00"/>
    </edge>
    <edge id=":south_node_0" function="internal">
        <lane id=":south_node_0_0" index="0" speed="3.65" length="4.67" shape="398.40,0.00 399.20,-1.20 400.00,-1.60 400.80,-1.20 401.60,0.00"/>
    </edge>
    <edge id=":west_node_0" function="internal">
        <lane id=":west_node_0_0" index="0" speed="3.65" length="4.67" shape="0.00,401.60 -1.20,400.80 -1.60,400.00 -1.20,399.20 0.00,398.40"/>
    </edge>

    <edge id="east_in" from="east_node" to="center" priority="-1">
        <lane id="east_in_0" index="0" speed="13.89" length="386.40" shape="800.00,408.00 413.60,408.00"/>
        <lane id="east_in_1" index="1" speed="13.89" length="386.40" shape="800.00,404.80 413.60,404.80"/>
        <lane id="east_in_2" index="2" speed="13.89" length="386.40" shape="800.00,401.60 413.60,401.60"/>
    </edge>
    <edge id="east_out" from="center" to="east_node" priority="-1">
        <lane id="east_out_0" index="0" speed="13.89" length="386.40" shape="413.60,392.00 800.00,392.00"/>
        <lane id="east_out_1" index="1" speed="13.89" length="386.40" shape="413.60,395.20 800.00,395.20"/>
        <lane id="east_out_2" index="2" speed="13.89" length="386.40" shape="413.60,398.40 800.00,398.40"/>
    </edge>
    <edge id="north_in" from="north_node" to="center" priority="-1">
        <lane id="north_in_0" index="0" speed="13.89" length="386.40" shape="392.00,800.00 392.00,413.60"/>
        <lane id="north_in_1" index="1" speed="13.89" length="386.40" shape="395.20,800.00 395.20,413.60"/>
        <lane id="north_in_2" index="2" speed="13.89" length="386.40" shape="398.40,800.00 398.40,413.60"/>
    </edge>
    <edge id="north_out" from="center" to="north_node" priority="-1">
        <lane id="north_out_0" index="0" speed="13.89" length="386.40" shape="408.00,413.60 408.00,800.00"/>
        <lane id="north_out_1" index="1" speed="13.89" length="386.40" shape="404.80,413.60 404.80,800.00"/>
        <lane id="north_out_2" index="2" speed="13.89" length="386.40" shape="401.60,413.60 401.60,800.00"/>
    </edge>
    <edge id="south_in" from="south_node" to="center" priority="-1">
        <lane id="south_in_0" index="0" speed="13.89" length="386.40" shape="408.00,0.00 408.00,386.40"/>
        <lane id="south_in_1" index="1" speed="13.89" length="386.40" shape="404.80,0.00 404.80,386.40"/>
        <lane id="south_in_2" index="2" speed="13.89" length="386.40" shape="401.60,0.00 401.60,386.40"/>
    </edge>
    <edge id="south_out" from="center" to="south_node" priority="-1">
        <lane id="south_out_0" index="0" speed="13.89" length="386.40" shape="392.00,386.40 392.00,0.00"/>
        <lane id="south_out_1" index="1" speed="13.89" length="386.40" shape="395.20,386.40 395.20,0.00"/>
        <lane id="south_out_2" index="2" speed="13.89" length="386.40" shape="398.40,386.40 398.40,0.00"/>
    </edge>
    <edge id="west_in" from="west_node" to="center" priority="-1">
        <lane id="west_in_0" index="0" speed="13.89" length="386.40" shape="0.00,392.00 386.40,392.00"/>
        <lane id="west_in_1" index="1" speed="13.89" length="386.40" shape="0.00,395.20 386.40,395.20"/>
        <lane id="west_in_2" index="2" speed="13.89" length="386.40" shape="0.00,398.40 386.40,398.40"/>
    </edge>
    <edge id="west_out" from="center" to="west_node" priority="-1">
        <lane id="west_out_0" index="0" speed="13.89" length="386.40" shape="386.40,408.00 0.00,408.00"/>
        <lane id="west_out_1" index="1" speed="13.89" length="386.40" shape="386.40,404.80 0.00,404.80"/>
        <lane id="west_out_2" index="2" speed="13.89" length="386.40" shape="386.40,401.60 0.00,401.60"/>
    </edge>

    <tlLogic id="center" type="static" programID="0" offset="0">
        <phase duration="42" state="GGGGggrrrrrrGGGGggrrrrrr"/>
        <phase duration="3"  state="yyyyyyrrrrrryyyyyyrrrrrr"/>
        <phase duration="42" state="rrrrrrGGGGggrrrrrrGGGGgg"/>
        <phase duration="3"  state="rrrrrryyyyyyrrrrrryyyyyy"/>
    </tlLogic>

    <junction id="center" type="traffic_light" x="400.00" y="400.00" incLanes="north_in_0 north_in_1 north_in_2 east_in_0 east_in_1 east_in_2 south_in_0 south_in_1 south_in_2 west_in_0 west_in_1 west_in_2" intLanes=":center_0_0 :center_1_0 :center_1_1 :center_1_2 :center_24_0 :center_25_0 :center_6_0 :center_7_0 :center_7_1 :center_7_2 :center_26_0 :center_27_0 :center_12_0 :center_13_0 :center_13_1 :center_13_2 :center_28_0 :center_29_0 :center_18_0 :center_19_0 :center_19_1 :center_19_2 :center_30_0 :center_31_0" shape="390.40,413.60 409.60,413.60 410.04,411.38 410.60,410.60 411.38,410.04 412.38,409.71 413.60,409.60 413.60,390.40 411.38,389.96 410.60,389.40 410.04,388.62 409.71,387.62 409.60,386.40 390.40,386.40 389.96,388.62 389.40,389.40 388.62,389.96 387.62,390.29 386.40,390.40 386.40,409.60 388.62,410.04 389.40,410.60 389.96,411.38 390.29,412.38">
        <request index="0"  response="000000000000000000000000" foes="000000000000001110000000" cont="0"/>
        <request index="1"  response="010000000000000000000000" foes="011111110000011110000000" cont="0"/>
        <request index="2"  response="010000000000000000000000" foes="011111110000011110000000" cont="0"/>
        <request index="3"  response="010000000000010000000000" foes="011111110000011110000000" cont="0"/>
        <request index="4"  response="010000001110010000000000" foes="011110001110111110000000" cont="1"/>
        <request index="5"  response="010000001110000000000000" foes="010000001110000000000000" cont="1"/>
        <request index="6"  response="000000001110000000000000" foes="000000001110000000000000" cont="0"/>
        <request index="7"  response="000000011110000000011111" foes="110000011110000000011111" cont="0"/>
        <request index="8"  response="000000011110000000011111" foes="110000011110000000011111" cont="0"/>
        <request index="9"  response="000000011110000000011111" foes="110000011110000000011111" cont="0"/>
        <request index="10" response="001110011110000000011110" foes="001110111110000000011110" cont="1"/>
        <request index="11" response="001110000000000000010000" foes="001110000000000000010000" cont="1"/>
        <request index="12" response="000000000000000000000000" foes="001110000000000000000000" cont="0"/>
        <request index="13" response="000000000000010000000000" foes="011110000000011111110000" cont="0"/>
        <request index="14" response="000000000000010000000000" foes="011110000000011111110000" cont="0"/>
        <request index="15" response="010000000000010000000000" foes="011110000000011111110000" cont="0"/>
        <request index="16" response="010000000000010000001110" foes="111110000000011110001110" cont="1"/>
        <request index="17" response="000000000000010000001110" foes="000000000000010000001110" cont="1"/>
        <request index="18" response="000000000000000000001110" foes="000000000000000000001110" cont="0"/>
        <request index="19" response="000000011111000000011110" foes="000000011111110000011110" cont="0"/>
        <request index="20" response="000000011111000000011110" foes="000000011111110000011110" cont="0"/>
        <request index="21" response="000000011111000000011110" foes="000000011111110000011110" cont="0"/>
        <request index="22" response="000000011110001110011110" foes="000000011110001110111110" cont="1"/>
        <request index="23" response="000000010000001110000000" foes="000000010000001110000000" cont="1"/>
    </junction>
    <junction id="east_node" type="priority" x="800.00" y="400.00" incLanes="east_out_0 east_out_1 east_out_2" intLanes=":east_node_0_0" shape="800.00,400.00 800.00,390.40 800.00,400.00">
        <request index="0" response="0" foes="0" cont="0"/>
    </junction>
    <junction id="north_node" type="priority" x="400.00" y="800.00" incLanes="north_out_0 north_out_1 north_out_2" intLanes=":north_node_0_0" shape="400.00,800.00 409.60,800.00 400.00,800.00">
        <request index="0" response="0" foes="0" cont="0"/>
    </junction>
    <junction id="south_node" type="priority" x="400.00" y="0.00" incLanes="south_out_0 south_out_1 south_out_2" intLanes=":south_node_0_0" shape="400.00,0.00 390.40,0.00 400.00,0.00">
        <request index="0" response="0" foes="0" cont="0"/>
    </junction>
    <junction id="west_node" type="priority" x="0.00" y="400.00" incLanes="west_out_0 west_out_1 west_out_2" intLanes=":west_node_0_0" shape="0.00,400.00 0.00,409.60 0.00,400.00">
        <request index="0" response="0" foes="0" cont="0"/>
    </junction>

    <junction id=":center_24_0" type="internal" x="399.11" y="408.64" incLanes=":center_4_0 south_in_0 south_in_1 south_in_2" intLanes=":center_7_0 :center_7_1 :center_7_2 :center_10_0 :center_11_0 :center_12_0 :center_13_0 :center_13_1 :center_13_2 :center_19_0 :center_19_1 :center_19_2 :center_22_0"/>
    <junction id=":center_25_0" type="internal" x="399.20" y="412.40" incLanes=":center_5_0 east_in_0 south_in_0 south_in_1 south_in_2 west_in_2" intLanes=":center_6_0 :center_13_0 :center_13_1 :center_13_2 :center_22_0"/>
    <junction id=":center_26_0" type="internal" x="408.64" y="400.89" incLanes=":center_10_0 west_in_0 west_in_1 west_in_2" intLanes=":center_1_0 :center_1_1 :center_1_2 :center_4_0 :center_13_0 :center_13_1 :center_13_2 :center_16_0 :center_17_0 :center_18_0 :center_19_0 :center_19_1 :center_19_2"/>
    <junction id=":center_27_0" type="internal" x="412.40" y="400.80" incLanes=":center_11_0 north_in_2 south_in_0 west_in_0 west_in_1 west_in_2" intLanes=":center_4_0 :center_12_0 :center_19_0 :center_19_1 :center_19_2"/>
    <junction id=":center_28_0" type="internal" x="400.89" y="391.36" incLanes=":center_16_0 north_in_0 north_in_1 north_in_2" intLanes=":center_0_0 :center_1_0 :center_1_1 :center_1_2 :center_7_0 :center_7_1 :center_7_2 :center_10_0 :center_19_0 :center_19_1 :center_19_2 :center_22_0 :center_23_0"/>
    <junction id=":center_29_0" type="internal" x="400.80" y="387.60" incLanes=":center_17_0 east_in_2 north_in_0 north_in_1 north_in_2 west_in_0" intLanes=":center_1_0 :center_1_1 :center_1_2 :center_10_0 :center_18_0"/>
    <junction id=":center_30_0" type="internal" x="391.36" y="399.11" incLanes=":center_22_0 east_in_0 east_in_1 east_in_2" intLanes=":center_1_0 :center_1_1 :center_1_2 :center_4_0 :center_5_0 :center_6_0 :center_7_0 :center_7_1 :center_7_2 :center_13_0 :center_13_1 :center_13_2 :center_16_0"/>
    <junction id=":center_31_0" type="internal" x="387.60" y="399.20" incLanes=":center_23_0 east_in_0 east_in_1 east_in_2 north_in_0 south_in_2" intLanes=":center_0_0 :center_7_0 :center_7_1 :center_7_2 :center_16_0"/>

    <connection from="east_in" to="north_out" fromLane="0" toLane="0" via=":center_6_0" tl="center" linkIndex="6" dir="r" state="o"/>
    <connection from="east_in" to="west_out" fromLane="0" toLane="0" via=":center_7_0" tl="center" linkIndex="7" dir="s" state="o"/>
    <connection from="east_in" to="west_out" fromLane="1" toLane="1" via=":center_7_1" tl="center" linkIndex="8" dir="s" state="o"/>
    <connection from="east_in" to="west_out" fromLane="2" toLane="2" via=":center_7_2" tl="center" linkIndex="9" dir="s" state="o"/>
    <connection from="east_in" to="south_out" fromLane="2" toLane="2" via=":center_10_0" tl="center" linkIndex="10" dir="l" state="o"/>
    <connection from="east_in" to="east_out" fromLane="2" toLane="2" via=":center_11_0" tl="center" linkIndex="11" dir="t" state="o"/>
    <connection from="east_out" to="east_in" fromLane="2" toLane="2" via=":east_node_0_0" dir="t" state="M"/>
    <connection from="north_in" to="west_out" fromLane="0" toLane="0" via=":center_0_0" tl="center" linkIndex="0" dir="r" state="O"/>
    <connection from="north_in" to="south_out" fromLane="0" toLane="0" via=":center_1_0" tl="center" linkIndex="1" dir="s" state="O"/>
    <connection from="north_in" to="south_out" fromLane="1" toLane="1" via=":center_1_1" tl="center" linkIndex="2" dir="s" state="O"/>
    <connection from="north_in" to="south_out" fromLane="2" toLane="2" via=":center_1_2" tl="center" linkIndex="3" dir="s" state="O"/>
    <connection from="north_in" to="east_out" fromLane="2" toLane="2" via=":center_4_0" tl="center" linkIndex="4" dir="l" state="o"/>
    <connection from="north_in" to="north_out" fromLane="2" toLane="2" via=":center_5_0" tl="center" linkIndex="5" dir="t" state="o"/>
    <connection from="north_out" to="north_in" fromLane="2" toLane="2" via=":north_node_0_0" dir="t" state="M"/>
    <connection from="south_in" to="east_out" fromLane="0" toLane="0" via=":center_12_0" tl="center" linkIndex="12" dir="r" state="O"/>
    <connection from="south_in" to="north_out" fromLane="0" toLane="0" via=":center_13_0" tl="center" linkIndex="13" dir="s" state="O"/>
    <connection from="south_in" to="north_out" fromLane="1" toLane="1" via=":center_13_1" tl="center" linkIndex="14" dir="s" state="O"/>
    <connection from="south_in" to="north_out" fromLane="2" toLane="2" via=":center_13_2" tl="center" linkIndex="15" dir="s" state="O"/>
    <connection from="south_in" to="west_out" fromLane="2" toLane="2" via=":center_16_0" tl="center" linkIndex="16" dir="l" state="o"/>
    <connection from="south_in" to="south_out" fromLane="2" toLane="2" via=":center_17_0" tl="center" linkIndex="17" dir="t" state="o"/>
    <connection from="south_out" to="south_in" fromLane="2" toLane="2" via=":south_node_0_0" dir="t" state="M"/>
    <connection from="west_in" to="south_out" fromLane="0" toLane="0" via=":center_18_0" tl="center" linkIndex="18" dir="r" state="o"/>
    <connection from="west_in" to="east_out" fromLane="0" toLane="0" via=":center_19_0" tl="center" linkIndex="19" dir="s" state="o"/>
    <connection from="west_in" to="east_out" fromLane="1" toLane="1" via=":center_19_1" tl="center" linkIndex="20" dir="s" state="o"/>
    <connection from="west_in" to="east_out" fromLane="2" toLane="2" via=":center_19_2" tl="center" linkIndex="21" dir="s" state="o"/>
    <connection from="west_in" to="north_out" fromLane="2" toLane="2" via=":center_22_0" tl="center" linkIndex="22" dir="l" state="o"/>
    <connection from="west_in" to="west_out" fromLane="2" toLane="2" via=":center_23_0" tl="center" linkIndex="23" dir="t" state="o"/>
    <connection from="west_out" to="west_in" fromLane="2" toLane="2" via=":west_node_0_0" dir="t" state="M"/>

    <connection from=":center_0" to="west_out" fromLane="0" toLane="0" dir="r" state="M"/>
    <connection from=":center_1" to="south_out" fromLane="0" toLane="0" dir="s" state="M"/>
    <connection from=":center_1" to="south_out" fromLane="1" toLane="1" dir="s" state="M"/>
    <connection from=":center_1" to="south_out" fromLane="2" toLane="2" dir="s" state="M"/>
    <connection from=":center_4" to="east_out" fromLane="0" toLane="2" via=":center_24_0" dir="l" state="m"/>
    <connection from=":center_24" to="east_out" fromLane="0" toLane="2" dir="l" state="M"/>
    <connection from=":center_5" to="north_out" fromLane="0" toLane="2" via=":center_25_0" dir="t" state="m"/>
    <connection from=":center_25" to="north_out" fromLane="0" toLane="2" dir="t" state="M"/>
    <connection from=":center_6" to="north_out" fromLane="0" toLane="0" dir="r" state="M"/>
    <connection from=":center_7" to="west_out" fromLane="0" toLane="0" dir="s" state="M"/>
    <connection from=":center_7" to="west_out" fromLane="1" toLane="1" dir="s" state="M"/>
    <connection from=":center_7" to="west_out" fromLane="2" toLane="2" dir="s" state="M"/>
    <connection from=":center_10" to="south_out" fromLane="0" toLane="2" via=":center_26_0" dir="l" state="m"/>
    <connection from=":center_26" to="south_out" fromLane="0" toLane="2" dir="l" state="M"/>
    <connection from=":center_11" to="east_out" fromLane="0" toLane="2" via=":center_27_0" dir="t" state="m"/>
    <connection from=":center_27" to="east_out" fromLane="0" toLane="2" dir="t" state="M"/>
    <connection from=":center_12" to="east_out" fromLane="0" toLane="0" dir="r" state="M"/>
    <connection from=":center_13" to="north_out" fromLane="0" toLane="0" dir="s" state="M"/>
    <connection from=":center_13" to="north_out" fromLane="1" toLane="1" dir="s" state="M"/>
    <connection from=":center_13" to="north_out" fromLane="2" toLane="2" dir="s" state="M"/>
    <connection from=":center_16" to="west_out" fromLane="0" toLane="2" via=":center_28_0" dir="l" state="m"/>
    <connection from=":center_28" to="west_out" fromLane="0" toLane="2" dir="l" state="M"/>
    <connection from=":center_17" to="south_out" fromLane="0" toLane="2" via=":center_29_0" dir="t" state="m"/>
    <connection from=":center_29" to="south_out" fromLane="0" toLane="2" dir="t" state="M"/>
    <connection from=":center_18" to="south_out" fromLane="0" toLane="0" dir="r" state="M"/>
    <connection from=":center_19" to="east_out" fromLane="0" toLane="0" dir="s" state="M"/>
    <connection from=":center_19" to="east_out" fromLane="1" toLane="1" dir="s" state="M"/>
    <connection from=":center_19" to="east_out" fromLane="2" toLane="2" dir="s" state="M"/>
    <connection from=":center_22" to="north_out" fromLane="0" toLane="2" via=":center_30_0" dir="l" state="m"/>
    <connection from=":center_30" to="north_out" fromLane="0" toLane="2" dir="l" state="M"/>
    <connection from=":center_23" to="west_out" fromLane="0" toLane="2" via=":center_31_0" dir="t" state="m"/>
    <connection from=":center_31" to="west_out" fromLane="0" toLane="2" dir="t" state="M"/>
    <connection from=":east_node_0" to="east_in" fromLane="0" toLane="2" dir="t" state="M"/>
    <connection from=":north_node_0" to="north_in" fromLane="0" toLane="2" dir="t" state="M"/>
    <connection from=":south_node_0" to="south_in" fromLane="0" toLane="2" dir="t" state="M"/>
    <connection from=":west_node_0" to="west_in" fromLane="0" toLane="2" dir="t" state="M"/>

</net>
